NOVO24/1726534/Vaos.dss
! ==========================================================
! VAOS DE SAIDA — barra de MT da SE -> cabeceira do alimentador
! Derivado de CTMT.BARR e CTMT.UNI_TR_AT: a BDGD nao modela o
! arranjo interno da subestacao, so o vinculo logico.
! Cada vao e o disjuntor de saida do alimentador.
! ==========================================================
New Line.VAO_AVT07 phases=3 Bus1=2710294481.1.2.3 Bus2=segm_2710294188.1.2.3 Switch=y r1=0.0001 r0=0.0001 x1=0 x0=0 c1=0 c0=0
New Monitor.M_AVT07 element=Line.VAO_AVT07 terminal=1 mode=1 ppolar=no
New Line.VAO_AVT06 phases=3 Bus1=2710294481.1.2.3 Bus2=segm_2710294164.1.2.3 Switch=y r1=0.0001 r0=0.0001 x1=0 x0=0 c1=0 c0=0
New Monitor.M_AVT06 element=Line.VAO_AVT06 terminal=1 mode=1 ppolar=no
New Line.VAO_AVT08 phases=3 Bus1=2710294481.1.2.3 Bus2=segm_2710294231.1.2.3 Switch=y r1=0.0001 r0=0.0001 x1=0 x0=0 c1=0 c0=0
New Monitor.M_AVT08 element=Line.VAO_AVT08 terminal=1 mode=1 ppolar=no
